data_cif_C3A - cubic
_audit_creation_date              'Tuesday, February 23, 2016, 4:39 PM'
_audit_creation_method            'MDI-Jade (2010)'

_chemical_name_common
;
C3A - cubic
;
_chemical_formula_sum             Ca3Al2O6

_publ_section_references
;
Acta Cryst B 31 (1975) 689, Mondal, P., Jeffery, J.W.
;
_publ_section_comment
;
See also PDF 38-1429. [C3A - cubic.csf]
;

_symmetry_cell_setting            Cubic
_symmetry_space_group_name_H-M    Pa-3
_symmetry_Int_Tables_number       205

_cell_length_a                    15.263
_cell_length_b                    15.263
_cell_length_c                    15.263
_cell_angle_alpha                 90.0
_cell_angle_beta                  90.0
_cell_angle_gamma                 90.0
_cell_volume                      3555.66
_cell_formula_units_Z             1.0

loop_
 _atom_site_label
 _atom_site_type_symbol
 _atom_site_symmetry_multiplicity
 _atom_site_occupancy
 _atom_site_fract_x
 _atom_site_fract_y
 _atom_site_fract_z
 _atom_site_B_iso_or_equiv
 _atom_site_thermal_displace_type
 Ca1  Ca+2 4   1.0   0.0      0.0      0.0      0.5      Biso
 Ca2  Ca+2 4   1.0   0.5      0.0      0.0      0.7      Biso
 Ca3  Ca+2 8   1.0   0.256    0.256    0.256    0.6      Biso
 Ca4  Ca+2 8   1.0   0.375    0.375    0.375    0.9      Biso
 Ca5  Ca+2 24  1.0   0.139    0.376    0.127    1.0      Biso
 Ca6  Ca+2 24  1.0   0.38     0.384    0.121    0.7      Biso
 Al1  Al+3 24  1.0   0.253    0.013    0.02     0.5      Biso
 Al2  Al+3 24  1.0   0.244    0.234    0.005    0.5      Biso
 O1   O-2  24  1.0   0.278    0.124    0.01     1.2      Biso
 O2   O-2  24  1.0   0.484    0.132    0.254    1.1      Biso
 O3   O-2  24  1.0   0.266    0.284    0.105    1.0      Biso
 O4   O-2  24  1.0   0.235    0.405    0.292    1.1      Biso
 O5   O-2  24  1.0   0.349    -0.038   -0.017   1.0      Biso
 O6   O-2  24  1.0   0.151    -0.01    -0.024   1.0      Biso
